<routes>
        <vType id="car" accel="0.8" decel="4.5" sigma="0" length="5" minGap="2" maxSpeed="90"/>
        <route id="W_LT" edges="51i 1i 3o 53o" />
        <route id="W_E" edges="51i 1i 1o 51o" />
        <route id="W_RT" edges="51i 1i 4o 54o" />
        
        <route id="E_W" edges="52i 2i 2o 52o" />
        <route id="E_RT" edges="52i 2i 3o 53o" />
        <route id="E_LT" edges="52i 2i 4o 54o" />
        
        <route id="S_N" edges="53i 3i 3o 53o" />
        <route id="S_LT" edges="53i 3i 2o 52o" />
        <route id="S_RT" edges="53i 3i 1o 51o" />
        
        <route id="N_S" edges="54i 4i 4o 54o" />
        <route id="N_LT" edges="54i 4i 1o 51o" />
        <route id="N_RT" edges="54i 4i 2o 52o" />
    <vehicle id="SN_0" type="car" route="S_N" depart="0" />
    <vehicle id="NS_1" type="car" route="N_S" depart="0" />
    <vehicle id="SN_2" type="car" route="S_N" depart="2" />
    <vehicle id="NS_3" type="car" route="N_S" depart="2" />
    <vehicle id="EW_4" type="car" route="E_W" depart="3" />
    <vehicle id="WE_5" type="car" route="W_E" depart="3" />
    <vehicle id="WLT_6" type="car" route="W_LT" depart="4" />
    <vehicle id="SLT_7" type="car" route="S_LT" depart="4" />
    <vehicle id="ELT_8" type="car" route="E_LT" depart="4" />
    <vehicle id="NLT_9" type="car" route="N_LT" depart="4" />
    <vehicle id="SN_10" type="car" route="S_N" depart="10" />
    <vehicle id="NS_11" type="car" route="N_S" depart="10" />
    <vehicle id="EW_12" type="car" route="E_W" depart="11" />
    <vehicle id="WE_13" type="car" route="W_E" depart="11" />
    <vehicle id="EW_14" type="car" route="E_W" depart="14" />
    <vehicle id="WE_15" type="car" route="W_E" depart="14" />
    <vehicle id="WLT_16" type="car" route="W_LT" depart="16" />
    <vehicle id="SLT_17" type="car" route="S_LT" depart="16" />
    <vehicle id="ELT_18" type="car" route="E_LT" depart="16" />
    <vehicle id="NLT_19" type="car" route="N_LT" depart="16" />
    <vehicle id="EW_20" type="car" route="E_W" depart="22" />
    <vehicle id="WE_21" type="car" route="W_E" depart="22" />
    <vehicle id="SN_22" type="car" route="S_N" depart="22" />
    <vehicle id="NS_23" type="car" route="N_S" depart="22" />
    <vehicle id="EW_24" type="car" route="E_W" depart="25" />
    <vehicle id="WE_25" type="car" route="W_E" depart="25" />
    <vehicle id="EW_26" type="car" route="E_W" depart="31" />
    <vehicle id="WE_27" type="car" route="W_E" depart="31" />
    <vehicle id="WRT_28" type="car" route="W_RT" depart="31" />
    <vehicle id="SRT_29" type="car" route="S_RT" depart="31" />
    <vehicle id="ERT_30" type="car" route="E_RT" depart="31" />
    <vehicle id="NRT_31" type="car" route="N_RT" depart="31" />
    <vehicle id="EW_32" type="car" route="E_W" depart="34" />
    <vehicle id="WE_33" type="car" route="W_E" depart="34" />
    <vehicle id="EW_34" type="car" route="E_W" depart="40" />
    <vehicle id="WE_35" type="car" route="W_E" depart="40" />
    <vehicle id="SN_36" type="car" route="S_N" depart="41" />
    <vehicle id="NS_37" type="car" route="N_S" depart="41" />
    <vehicle id="EW_38" type="car" route="E_W" depart="44" />
    <vehicle id="WE_39" type="car" route="W_E" depart="44" />
    <vehicle id="EW_40" type="car" route="E_W" depart="47" />
    <vehicle id="WE_41" type="car" route="W_E" depart="47" />
    <vehicle id="SN_42" type="car" route="S_N" depart="49" />
    <vehicle id="NS_43" type="car" route="N_S" depart="49" />
    <vehicle id="EW_44" type="car" route="E_W" depart="56" />
    <vehicle id="WE_45" type="car" route="W_E" depart="56" />
    <vehicle id="EW_46" type="car" route="E_W" depart="57" />
    <vehicle id="WE_47" type="car" route="W_E" depart="57" />
    <vehicle id="EW_48" type="car" route="E_W" depart="63" />
    <vehicle id="WE_49" type="car" route="W_E" depart="63" />
    <vehicle id="EW_50" type="car" route="E_W" depart="64" />
    <vehicle id="WE_51" type="car" route="W_E" depart="64" />
    <vehicle id="SN_52" type="car" route="S_N" depart="67" />
    <vehicle id="NS_53" type="car" route="N_S" depart="67" />
    <vehicle id="EW_54" type="car" route="E_W" depart="69" />
    <vehicle id="WE_55" type="car" route="W_E" depart="69" />
    <vehicle id="WRT_56" type="car" route="W_RT" depart="72" />
    <vehicle id="SRT_57" type="car" route="S_RT" depart="72" />
    <vehicle id="ERT_58" type="car" route="E_RT" depart="72" />
    <vehicle id="NRT_59" type="car" route="N_RT" depart="72" />
    <vehicle id="SN_60" type="car" route="S_N" depart="74" />
    <vehicle id="NS_61" type="car" route="N_S" depart="74" />
    <vehicle id="EW_62" type="car" route="E_W" depart="76" />
    <vehicle id="WE_63" type="car" route="W_E" depart="76" />
    <vehicle id="EW_64" type="car" route="E_W" depart="81" />
    <vehicle id="WE_65" type="car" route="W_E" depart="81" />
    <vehicle id="WRT_66" type="car" route="W_RT" depart="85" />
    <vehicle id="SRT_67" type="car" route="S_RT" depart="85" />
    <vehicle id="ERT_68" type="car" route="E_RT" depart="85" />
    <vehicle id="NRT_69" type="car" route="N_RT" depart="85" />
    <vehicle id="EW_70" type="car" route="E_W" depart="92" />
    <vehicle id="WE_71" type="car" route="W_E" depart="92" />
    <vehicle id="WRT_72" type="car" route="W_RT" depart="98" />
    <vehicle id="SRT_73" type="car" route="S_RT" depart="98" />
    <vehicle id="ERT_74" type="car" route="E_RT" depart="98" />
    <vehicle id="NRT_75" type="car" route="N_RT" depart="98" />
    <vehicle id="WLT_76" type="car" route="W_LT" depart="103" />
    <vehicle id="SLT_77" type="car" route="S_LT" depart="103" />
    <vehicle id="ELT_78" type="car" route="E_LT" depart="103" />
    <vehicle id="NLT_79" type="car" route="N_LT" depart="103" />
    <vehicle id="WLT_80" type="car" route="W_LT" depart="106" />
    <vehicle id="SLT_81" type="car" route="S_LT" depart="106" />
    <vehicle id="ELT_82" type="car" route="E_LT" depart="106" />
    <vehicle id="NLT_83" type="car" route="N_LT" depart="106" />
    <vehicle id="EW_84" type="car" route="E_W" depart="108" />
    <vehicle id="WE_85" type="car" route="W_E" depart="108" />
    <vehicle id="EW_86" type="car" route="E_W" depart="115" />
    <vehicle id="WE_87" type="car" route="W_E" depart="115" />
    <vehicle id="SN_88" type="car" route="S_N" depart="117" />
    <vehicle id="NS_89" type="car" route="N_S" depart="117" />
    <vehicle id="SN_90" type="car" route="S_N" depart="120" />
    <vehicle id="NS_91" type="car" route="N_S" depart="120" />
    <vehicle id="SN_92" type="car" route="S_N" depart="123" />
    <vehicle id="NS_93" type="car" route="N_S" depart="123" />
    <vehicle id="SN_94" type="car" route="S_N" depart="125" />
    <vehicle id="NS_95" type="car" route="N_S" depart="125" />
    <vehicle id="EW_96" type="car" route="E_W" depart="126" />
    <vehicle id="WE_97" type="car" route="W_E" depart="126" />
    <vehicle id="EW_98" type="car" route="E_W" depart="127" />
    <vehicle id="WE_99" type="car" route="W_E" depart="127" />
    <vehicle id="SN_100" type="car" route="S_N" depart="129" />
    <vehicle id="NS_101" type="car" route="N_S" depart="129" />
    <vehicle id="WRT_102" type="car" route="W_RT" depart="129" />
    <vehicle id="SRT_103" type="car" route="S_RT" depart="129" />
    <vehicle id="ERT_104" type="car" route="E_RT" depart="129" />
    <vehicle id="NRT_105" type="car" route="N_RT" depart="129" />
    <vehicle id="EW_106" type="car" route="E_W" depart="132" />
    <vehicle id="WE_107" type="car" route="W_E" depart="132" />
    <vehicle id="EW_108" type="car" route="E_W" depart="134" />
    <vehicle id="WE_109" type="car" route="W_E" depart="134" />
    <vehicle id="WLT_110" type="car" route="W_LT" depart="135" />
    <vehicle id="SLT_111" type="car" route="S_LT" depart="135" />
    <vehicle id="ELT_112" type="car" route="E_LT" depart="135" />
    <vehicle id="NLT_113" type="car" route="N_LT" depart="135" />
    <vehicle id="SN_114" type="car" route="S_N" depart="137" />
    <vehicle id="NS_115" type="car" route="N_S" depart="137" />
    <vehicle id="EW_116" type="car" route="E_W" depart="138" />
    <vehicle id="WE_117" type="car" route="W_E" depart="138" />
    <vehicle id="EW_118" type="car" route="E_W" depart="139" />
    <vehicle id="WE_119" type="car" route="W_E" depart="139" />
    <vehicle id="SN_120" type="car" route="S_N" depart="147" />
    <vehicle id="NS_121" type="car" route="N_S" depart="147" />
    <vehicle id="WRT_122" type="car" route="W_RT" depart="149" />
    <vehicle id="SRT_123" type="car" route="S_RT" depart="149" />
    <vehicle id="ERT_124" type="car" route="E_RT" depart="149" />
    <vehicle id="NRT_125" type="car" route="N_RT" depart="149" />
    <vehicle id="EW_126" type="car" route="E_W" depart="150" />
    <vehicle id="WE_127" type="car" route="W_E" depart="150" />
    <vehicle id="EW_128" type="car" route="E_W" depart="152" />
    <vehicle id="WE_129" type="car" route="W_E" depart="152" />
    <vehicle id="EW_130" type="car" route="E_W" depart="159" />
    <vehicle id="WE_131" type="car" route="W_E" depart="159" />
    <vehicle id="SN_132" type="car" route="S_N" depart="159" />
    <vehicle id="NS_133" type="car" route="N_S" depart="159" />
    <vehicle id="EW_134" type="car" route="E_W" depart="164" />
    <vehicle id="WE_135" type="car" route="W_E" depart="164" />
    <vehicle id="EW_136" type="car" route="E_W" depart="171" />
    <vehicle id="WE_137" type="car" route="W_E" depart="171" />
    <vehicle id="EW_138" type="car" route="E_W" depart="176" />
    <vehicle id="WE_139" type="car" route="W_E" depart="176" />
    <vehicle id="EW_140" type="car" route="E_W" depart="179" />
    <vehicle id="WE_141" type="car" route="W_E" depart="179" />
    <vehicle id="EW_142" type="car" route="E_W" depart="180" />
    <vehicle id="WE_143" type="car" route="W_E" depart="180" />
    <vehicle id="EW_144" type="car" route="E_W" depart="182" />
    <vehicle id="WE_145" type="car" route="W_E" depart="182" />
    <vehicle id="SN_146" type="car" route="S_N" depart="184" />
    <vehicle id="NS_147" type="car" route="N_S" depart="184" />
    <vehicle id="EW_148" type="car" route="E_W" depart="192" />
    <vehicle id="WE_149" type="car" route="W_E" depart="192" />
    <vehicle id="EW_150" type="car" route="E_W" depart="193" />
    <vehicle id="WE_151" type="car" route="W_E" depart="193" />
    <vehicle id="EW_152" type="car" route="E_W" depart="203" />
    <vehicle id="WE_153" type="car" route="W_E" depart="203" />
    <vehicle id="SN_154" type="car" route="S_N" depart="204" />
    <vehicle id="NS_155" type="car" route="N_S" depart="204" />
    <vehicle id="WLT_156" type="car" route="W_LT" depart="212" />
    <vehicle id="SLT_157" type="car" route="S_LT" depart="212" />
    <vehicle id="ELT_158" type="car" route="E_LT" depart="212" />
    <vehicle id="NLT_159" type="car" route="N_LT" depart="212" />
    <vehicle id="EW_160" type="car" route="E_W" depart="213" />
    <vehicle id="WE_161" type="car" route="W_E" depart="213" />
    <vehicle id="EW_162" type="car" route="E_W" depart="216" />
    <vehicle id="WE_163" type="car" route="W_E" depart="216" />
    <vehicle id="EW_164" type="car" route="E_W" depart="217" />
    <vehicle id="WE_165" type="car" route="W_E" depart="217" />
    <vehicle id="EW_166" type="car" route="E_W" depart="218" />
    <vehicle id="WE_167" type="car" route="W_E" depart="218" />
    <vehicle id="SN_168" type="car" route="S_N" depart="218" />
    <vehicle id="NS_169" type="car" route="N_S" depart="218" />
    <vehicle id="WRT_170" type="car" route="W_RT" depart="220" />
    <vehicle id="SRT_171" type="car" route="S_RT" depart="220" />
    <vehicle id="ERT_172" type="car" route="E_RT" depart="220" />
    <vehicle id="NRT_173" type="car" route="N_RT" depart="220" />
    <vehicle id="EW_174" type="car" route="E_W" depart="227" />
    <vehicle id="WE_175" type="car" route="W_E" depart="227" />
    <vehicle id="SN_176" type="car" route="S_N" depart="232" />
    <vehicle id="NS_177" type="car" route="N_S" depart="232" />
    <vehicle id="EW_178" type="car" route="E_W" depart="233" />
    <vehicle id="WE_179" type="car" route="W_E" depart="233" />
    <vehicle id="EW_180" type="car" route="E_W" depart="239" />
    <vehicle id="WE_181" type="car" route="W_E" depart="239" />
    <vehicle id="EW_182" type="car" route="E_W" depart="241" />
    <vehicle id="WE_183" type="car" route="W_E" depart="241" />
    <vehicle id="WRT_184" type="car" route="W_RT" depart="241" />
    <vehicle id="SRT_185" type="car" route="S_RT" depart="241" />
    <vehicle id="ERT_186" type="car" route="E_RT" depart="241" />
    <vehicle id="NRT_187" type="car" route="N_RT" depart="241" />
    <vehicle id="EW_188" type="car" route="E_W" depart="244" />
    <vehicle id="WE_189" type="car" route="W_E" depart="244" />
    <vehicle id="EW_190" type="car" route="E_W" depart="245" />
    <vehicle id="WE_191" type="car" route="W_E" depart="245" />
    <vehicle id="WLT_192" type="car" route="W_LT" depart="248" />
    <vehicle id="SLT_193" type="car" route="S_LT" depart="248" />
    <vehicle id="ELT_194" type="car" route="E_LT" depart="248" />
    <vehicle id="NLT_195" type="car" route="N_LT" depart="248" />
    <vehicle id="EW_196" type="car" route="E_W" depart="250" />
    <vehicle id="WE_197" type="car" route="W_E" depart="250" />
    <vehicle id="SN_198" type="car" route="S_N" depart="253" />
    <vehicle id="NS_199" type="car" route="N_S" depart="253" />
    <vehicle id="EW_200" type="car" route="E_W" depart="254" />
    <vehicle id="WE_201" type="car" route="W_E" depart="254" />
    <vehicle id="EW_202" type="car" route="E_W" depart="256" />
    <vehicle id="WE_203" type="car" route="W_E" depart="256" />
    <vehicle id="WRT_204" type="car" route="W_RT" depart="256" />
    <vehicle id="SRT_205" type="car" route="S_RT" depart="256" />
    <vehicle id="ERT_206" type="car" route="E_RT" depart="256" />
    <vehicle id="NRT_207" type="car" route="N_RT" depart="256" />
    <vehicle id="EW_208" type="car" route="E_W" depart="257" />
    <vehicle id="WE_209" type="car" route="W_E" depart="257" />
    <vehicle id="SN_210" type="car" route="S_N" depart="258" />
    <vehicle id="NS_211" type="car" route="N_S" depart="258" />
    <vehicle id="WRT_212" type="car" route="W_RT" depart="258" />
    <vehicle id="SRT_213" type="car" route="S_RT" depart="258" />
    <vehicle id="ERT_214" type="car" route="E_RT" depart="258" />
    <vehicle id="NRT_215" type="car" route="N_RT" depart="258" />
    <vehicle id="SN_216" type="car" route="S_N" depart="262" />
    <vehicle id="NS_217" type="car" route="N_S" depart="262" />
    <vehicle id="SN_218" type="car" route="S_N" depart="265" />
    <vehicle id="NS_219" type="car" route="N_S" depart="265" />
    <vehicle id="EW_220" type="car" route="E_W" depart="266" />
    <vehicle id="WE_221" type="car" route="W_E" depart="266" />
    <vehicle id="SN_222" type="car" route="S_N" depart="268" />
    <vehicle id="NS_223" type="car" route="N_S" depart="268" />
    <vehicle id="SN_224" type="car" route="S_N" depart="271" />
    <vehicle id="NS_225" type="car" route="N_S" depart="271" />
    <vehicle id="SN_226" type="car" route="S_N" depart="273" />
    <vehicle id="NS_227" type="car" route="N_S" depart="273" />
    <vehicle id="SN_228" type="car" route="S_N" depart="281" />
    <vehicle id="NS_229" type="car" route="N_S" depart="281" />
    <vehicle id="SN_230" type="car" route="S_N" depart="283" />
    <vehicle id="NS_231" type="car" route="N_S" depart="283" />
    <vehicle id="WLT_232" type="car" route="W_LT" depart="284" />
    <vehicle id="SLT_233" type="car" route="S_LT" depart="284" />
    <vehicle id="ELT_234" type="car" route="E_LT" depart="284" />
    <vehicle id="NLT_235" type="car" route="N_LT" depart="284" />
    <vehicle id="EW_236" type="car" route="E_W" depart="287" />
    <vehicle id="WE_237" type="car" route="W_E" depart="287" />
    <vehicle id="SN_238" type="car" route="S_N" depart="287" />
    <vehicle id="NS_239" type="car" route="N_S" depart="287" />
    <vehicle id="SN_240" type="car" route="S_N" depart="291" />
    <vehicle id="NS_241" type="car" route="N_S" depart="291" />
    <vehicle id="EW_242" type="car" route="E_W" depart="292" />
    <vehicle id="WE_243" type="car" route="W_E" depart="292" />
    <vehicle id="WRT_244" type="car" route="W_RT" depart="293" />
    <vehicle id="SRT_245" type="car" route="S_RT" depart="293" />
    <vehicle id="ERT_246" type="car" route="E_RT" depart="293" />
    <vehicle id="NRT_247" type="car" route="N_RT" depart="293" />
    <vehicle id="EW_248" type="car" route="E_W" depart="294" />
    <vehicle id="WE_249" type="car" route="W_E" depart="294" />
    <vehicle id="EW_250" type="car" route="E_W" depart="296" />
    <vehicle id="WE_251" type="car" route="W_E" depart="296" />
    <vehicle id="SN_252" type="car" route="S_N" depart="296" />
    <vehicle id="NS_253" type="car" route="N_S" depart="296" />
    <vehicle id="EW_254" type="car" route="E_W" depart="298" />
    <vehicle id="WE_255" type="car" route="W_E" depart="298" />
    <vehicle id="SN_256" type="car" route="S_N" depart="298" />
    <vehicle id="NS_257" type="car" route="N_S" depart="298" />
    <vehicle id="EW_258" type="car" route="E_W" depart="302" />
    <vehicle id="WE_259" type="car" route="W_E" depart="302" />
    <vehicle id="EW_260" type="car" route="E_W" depart="309" />
    <vehicle id="WE_261" type="car" route="W_E" depart="309" />
    <vehicle id="EW_262" type="car" route="E_W" depart="310" />
    <vehicle id="WE_263" type="car" route="W_E" depart="310" />
    <vehicle id="EW_264" type="car" route="E_W" depart="311" />
    <vehicle id="WE_265" type="car" route="W_E" depart="311" />
    <vehicle id="EW_266" type="car" route="E_W" depart="315" />
    <vehicle id="WE_267" type="car" route="W_E" depart="315" />
    <vehicle id="SN_268" type="car" route="S_N" depart="315" />
    <vehicle id="NS_269" type="car" route="N_S" depart="315" />
    <vehicle id="EW_270" type="car" route="E_W" depart="318" />
    <vehicle id="WE_271" type="car" route="W_E" depart="318" />
    <vehicle id="EW_272" type="car" route="E_W" depart="320" />
    <vehicle id="WE_273" type="car" route="W_E" depart="320" />
    <vehicle id="SN_274" type="car" route="S_N" depart="320" />
    <vehicle id="NS_275" type="car" route="N_S" depart="320" />
    <vehicle id="EW_276" type="car" route="E_W" depart="329" />
    <vehicle id="WE_277" type="car" route="W_E" depart="329" />
    <vehicle id="EW_278" type="car" route="E_W" depart="340" />
    <vehicle id="WE_279" type="car" route="W_E" depart="340" />
    <vehicle id="SN_280" type="car" route="S_N" depart="343" />
    <vehicle id="NS_281" type="car" route="N_S" depart="343" />
    <vehicle id="WLT_282" type="car" route="W_LT" depart="344" />
    <vehicle id="SLT_283" type="car" route="S_LT" depart="344" />
    <vehicle id="ELT_284" type="car" route="E_LT" depart="344" />
    <vehicle id="NLT_285" type="car" route="N_LT" depart="344" />
    <vehicle id="EW_286" type="car" route="E_W" depart="346" />
    <vehicle id="WE_287" type="car" route="W_E" depart="346" />
    <vehicle id="EW_288" type="car" route="E_W" depart="347" />
    <vehicle id="WE_289" type="car" route="W_E" depart="347" />
    <vehicle id="WLT_290" type="car" route="W_LT" depart="347" />
    <vehicle id="SLT_291" type="car" route="S_LT" depart="347" />
    <vehicle id="ELT_292" type="car" route="E_LT" depart="347" />
    <vehicle id="NLT_293" type="car" route="N_LT" depart="347" />
    <vehicle id="EW_294" type="car" route="E_W" depart="348" />
    <vehicle id="WE_295" type="car" route="W_E" depart="348" />
    <vehicle id="SN_296" type="car" route="S_N" depart="350" />
    <vehicle id="NS_297" type="car" route="N_S" depart="350" />
    <vehicle id="EW_298" type="car" route="E_W" depart="352" />
    <vehicle id="WE_299" type="car" route="W_E" depart="352" />
    <vehicle id="SN_300" type="car" route="S_N" depart="354" />
    <vehicle id="NS_301" type="car" route="N_S" depart="354" />
    <vehicle id="SN_302" type="car" route="S_N" depart="357" />
    <vehicle id="NS_303" type="car" route="N_S" depart="357" />
    <vehicle id="SN_304" type="car" route="S_N" depart="359" />
    <vehicle id="NS_305" type="car" route="N_S" depart="359" />
    <vehicle id="EW_306" type="car" route="E_W" depart="360" />
    <vehicle id="WE_307" type="car" route="W_E" depart="360" />
    <vehicle id="EW_308" type="car" route="E_W" depart="363" />
    <vehicle id="WE_309" type="car" route="W_E" depart="363" />
    <vehicle id="EW_310" type="car" route="E_W" depart="366" />
    <vehicle id="WE_311" type="car" route="W_E" depart="366" />
    <vehicle id="SN_312" type="car" route="S_N" depart="369" />
    <vehicle id="NS_313" type="car" route="N_S" depart="369" />
    <vehicle id="SN_314" type="car" route="S_N" depart="372" />
    <vehicle id="NS_315" type="car" route="N_S" depart="372" />
    <vehicle id="EW_316" type="car" route="E_W" depart="374" />
    <vehicle id="WE_317" type="car" route="W_E" depart="374" />
    <vehicle id="SN_318" type="car" route="S_N" depart="376" />
    <vehicle id="NS_319" type="car" route="N_S" depart="376" />
    <vehicle id="EW_320" type="car" route="E_W" depart="388" />
    <vehicle id="WE_321" type="car" route="W_E" depart="388" />
    <vehicle id="EW_322" type="car" route="E_W" depart="389" />
    <vehicle id="WE_323" type="car" route="W_E" depart="389" />
    <vehicle id="SN_324" type="car" route="S_N" depart="392" />
    <vehicle id="NS_325" type="car" route="N_S" depart="392" />
    <vehicle id="EW_326" type="car" route="E_W" depart="396" />
    <vehicle id="WE_327" type="car" route="W_E" depart="396" />
    <vehicle id="EW_328" type="car" route="E_W" depart="402" />
    <vehicle id="WE_329" type="car" route="W_E" depart="402" />
    <vehicle id="SN_330" type="car" route="S_N" depart="402" />
    <vehicle id="NS_331" type="car" route="N_S" depart="402" />
    <vehicle id="EW_332" type="car" route="E_W" depart="406" />
    <vehicle id="WE_333" type="car" route="W_E" depart="406" />
    <vehicle id="SN_334" type="car" route="S_N" depart="406" />
    <vehicle id="NS_335" type="car" route="N_S" depart="406" />
    <vehicle id="EW_336" type="car" route="E_W" depart="412" />
    <vehicle id="WE_337" type="car" route="W_E" depart="412" />
    <vehicle id="SN_338" type="car" route="S_N" depart="414" />
    <vehicle id="NS_339" type="car" route="N_S" depart="414" />
    <vehicle id="EW_340" type="car" route="E_W" depart="423" />
    <vehicle id="WE_341" type="car" route="W_E" depart="423" />
    <vehicle id="WLT_342" type="car" route="W_LT" depart="423" />
    <vehicle id="SLT_343" type="car" route="S_LT" depart="423" />
    <vehicle id="ELT_344" type="car" route="E_LT" depart="423" />
    <vehicle id="NLT_345" type="car" route="N_LT" depart="423" />
    <vehicle id="EW_346" type="car" route="E_W" depart="424" />
    <vehicle id="WE_347" type="car" route="W_E" depart="424" />
    <vehicle id="EW_348" type="car" route="E_W" depart="426" />
    <vehicle id="WE_349" type="car" route="W_E" depart="426" />
    <vehicle id="SN_350" type="car" route="S_N" depart="430" />
    <vehicle id="NS_351" type="car" route="N_S" depart="430" />
    <vehicle id="WLT_352" type="car" route="W_LT" depart="433" />
    <vehicle id="SLT_353" type="car" route="S_LT" depart="433" />
    <vehicle id="ELT_354" type="car" route="E_LT" depart="433" />
    <vehicle id="NLT_355" type="car" route="N_LT" depart="433" />
    <vehicle id="WRT_356" type="car" route="W_RT" depart="434" />
    <vehicle id="SRT_357" type="car" route="S_RT" depart="434" />
    <vehicle id="ERT_358" type="car" route="E_RT" depart="434" />
    <vehicle id="NRT_359" type="car" route="N_RT" depart="434" />
    <vehicle id="EW_360" type="car" route="E_W" depart="435" />
    <vehicle id="WE_361" type="car" route="W_E" depart="435" />
    <vehicle id="EW_362" type="car" route="E_W" depart="437" />
    <vehicle id="WE_363" type="car" route="W_E" depart="437" />
    <vehicle id="WLT_364" type="car" route="W_LT" depart="451" />
    <vehicle id="SLT_365" type="car" route="S_LT" depart="451" />
    <vehicle id="ELT_366" type="car" route="E_LT" depart="451" />
    <vehicle id="NLT_367" type="car" route="N_LT" depart="451" />
    <vehicle id="EW_368" type="car" route="E_W" depart="459" />
    <vehicle id="WE_369" type="car" route="W_E" depart="459" />
    <vehicle id="EW_370" type="car" route="E_W" depart="462" />
    <vehicle id="WE_371" type="car" route="W_E" depart="462" />
    <vehicle id="EW_372" type="car" route="E_W" depart="463" />
    <vehicle id="WE_373" type="car" route="W_E" depart="463" />
    <vehicle id="EW_374" type="car" route="E_W" depart="466" />
    <vehicle id="WE_375" type="car" route="W_E" depart="466" />
    <vehicle id="WRT_376" type="car" route="W_RT" depart="468" />
    <vehicle id="SRT_377" type="car" route="S_RT" depart="468" />
    <vehicle id="ERT_378" type="car" route="E_RT" depart="468" />
    <vehicle id="NRT_379" type="car" route="N_RT" depart="468" />
    <vehicle id="SN_380" type="car" route="S_N" depart="469" />
    <vehicle id="NS_381" type="car" route="N_S" depart="469" />
    <vehicle id="EW_382" type="car" route="E_W" depart="477" />
    <vehicle id="WE_383" type="car" route="W_E" depart="477" />
    <vehicle id="EW_384" type="car" route="E_W" depart="478" />
    <vehicle id="WE_385" type="car" route="W_E" depart="478" />
    <vehicle id="EW_386" type="car" route="E_W" depart="481" />
    <vehicle id="WE_387" type="car" route="W_E" depart="481" />
    <vehicle id="EW_388" type="car" route="E_W" depart="483" />
    <vehicle id="WE_389" type="car" route="W_E" depart="483" />
    <vehicle id="SN_390" type="car" route="S_N" depart="484" />
    <vehicle id="NS_391" type="car" route="N_S" depart="484" />
    <vehicle id="WLT_392" type="car" route="W_LT" depart="484" />
    <vehicle id="SLT_393" type="car" route="S_LT" depart="484" />
    <vehicle id="ELT_394" type="car" route="E_LT" depart="484" />
    <vehicle id="NLT_395" type="car" route="N_LT" depart="484" />
    <vehicle id="EW_396" type="car" route="E_W" depart="489" />
    <vehicle id="WE_397" type="car" route="W_E" depart="489" />
    <vehicle id="SN_398" type="car" route="S_N" depart="490" />
    <vehicle id="NS_399" type="car" route="N_S" depart="490" />
    <vehicle id="WRT_400" type="car" route="W_RT" depart="490" />
    <vehicle id="SRT_401" type="car" route="S_RT" depart="490" />
    <vehicle id="ERT_402" type="car" route="E_RT" depart="490" />
    <vehicle id="NRT_403" type="car" route="N_RT" depart="490" />
    <vehicle id="WRT_404" type="car" route="W_RT" depart="494" />
    <vehicle id="SRT_405" type="car" route="S_RT" depart="494" />
    <vehicle id="ERT_406" type="car" route="E_RT" depart="494" />
    <vehicle id="NRT_407" type="car" route="N_RT" depart="494" />
    <vehicle id="EW_408" type="car" route="E_W" depart="495" />
    <vehicle id="WE_409" type="car" route="W_E" depart="495" />
    <vehicle id="SN_410" type="car" route="S_N" depart="495" />
    <vehicle id="NS_411" type="car" route="N_S" depart="495" />
    <vehicle id="EW_412" type="car" route="E_W" depart="496" />
    <vehicle id="WE_413" type="car" route="W_E" depart="496" />
    <vehicle id="EW_414" type="car" route="E_W" depart="500" />
    <vehicle id="WE_415" type="car" route="W_E" depart="500" />
    <vehicle id="EW_416" type="car" route="E_W" depart="501" />
    <vehicle id="WE_417" type="car" route="W_E" depart="501" />
    <vehicle id="WRT_418" type="car" route="W_RT" depart="512" />
    <vehicle id="SRT_419" type="car" route="S_RT" depart="512" />
    <vehicle id="ERT_420" type="car" route="E_RT" depart="512" />
    <vehicle id="NRT_421" type="car" route="N_RT" depart="512" />
    <vehicle id="EW_422" type="car" route="E_W" depart="517" />
    <vehicle id="WE_423" type="car" route="W_E" depart="517" />
    <vehicle id="EW_424" type="car" route="E_W" depart="524" />
    <vehicle id="WE_425" type="car" route="W_E" depart="524" />
    <vehicle id="WLT_426" type="car" route="W_LT" depart="525" />
    <vehicle id="SLT_427" type="car" route="S_LT" depart="525" />
    <vehicle id="ELT_428" type="car" route="E_LT" depart="525" />
    <vehicle id="NLT_429" type="car" route="N_LT" depart="525" />
    <vehicle id="EW_430" type="car" route="E_W" depart="528" />
    <vehicle id="WE_431" type="car" route="W_E" depart="528" />
    <vehicle id="EW_432" type="car" route="E_W" depart="530" />
    <vehicle id="WE_433" type="car" route="W_E" depart="530" />
    <vehicle id="WRT_434" type="car" route="W_RT" depart="530" />
    <vehicle id="SRT_435" type="car" route="S_RT" depart="530" />
    <vehicle id="ERT_436" type="car" route="E_RT" depart="530" />
    <vehicle id="NRT_437" type="car" route="N_RT" depart="530" />
    <vehicle id="WRT_438" type="car" route="W_RT" depart="531" />
    <vehicle id="SRT_439" type="car" route="S_RT" depart="531" />
    <vehicle id="ERT_440" type="car" route="E_RT" depart="531" />
    <vehicle id="NRT_441" type="car" route="N_RT" depart="531" />
    <vehicle id="EW_442" type="car" route="E_W" depart="533" />
    <vehicle id="WE_443" type="car" route="W_E" depart="533" />
    <vehicle id="SN_444" type="car" route="S_N" depart="537" />
    <vehicle id="NS_445" type="car" route="N_S" depart="537" />
    <vehicle id="EW_446" type="car" route="E_W" depart="538" />
    <vehicle id="WE_447" type="car" route="W_E" depart="538" />
    <vehicle id="SN_448" type="car" route="S_N" depart="538" />
    <vehicle id="NS_449" type="car" route="N_S" depart="538" />
    <vehicle id="EW_450" type="car" route="E_W" depart="540" />
    <vehicle id="WE_451" type="car" route="W_E" depart="540" />
    <vehicle id="WLT_452" type="car" route="W_LT" depart="541" />
    <vehicle id="SLT_453" type="car" route="S_LT" depart="541" />
    <vehicle id="ELT_454" type="car" route="E_LT" depart="541" />
    <vehicle id="NLT_455" type="car" route="N_LT" depart="541" />